[globalOptions]

outputDir    = /scratch/depfg/steya001/1km_rhine/30_sec_lc_meier_new_pn_2/
#old_states /scratch/depfg/steya001/1km_rhine/geodar_rens_third/states/
# Set the input directory map in an absolute path. 
# - The input forcing and parameter directories and files will be relative to this.

inputDir     = /scratch/depfg/sutan101/data/pcrglobwb_input_arise/develop/

# Map of clone (must be provided in PCRaster maps)
# - Spatial resolution and coverage are based on this map:
cloneMap    = /scratch/depfg/sutan101/data/pcrglobwb_input_arise/develop/europe_30sec/cloneMaps/clonemaps_europe_countries/rhinemeuse/rhinemeuse_30sec.map 
#cloneMap = /scratch/depfg/sutan101/data/pcrglobwb_input_arise/develop/europe_30sec/cloneMaps/version_2021-03-15/mask/mask_13.map 
#cloneMap = /scratch/depfg/steya001/reservoirs/cropped_mask_rhine.map
# The area/landmask of interest:
# If None, area/landmask is limited for cells with ldd value. 
landmask = None

# netcdf attributes for output files:
institution = Department of Physical Geography, Utrecht University
title       = PCR-GLOBWB 2 output (not coupled to MODFLOW), with human factors (non-natural) - MAIN_OUTPUT_DIR
description = by Jennie C. Steyaert (contact: j.c.steyaert@uu.nl), PCR-GLOBWB run with human factors (non-natural)

#~ # Format: YYYY-MM-DD ; The model runs on daily time step.
#startTime = 1979-01-01
#endTime   = 1989-01-01

startTime = 1983-01-01
endTime   = 1989-01-01
# spinning up options:
maxSpinUpsInYears = 0
minConvForSoilSto = 0.0
minConvForGwatSto = 0.0
minConvForChanSto = 0.0
minConvForTotlSto = 0.0

# option/directory for saving the spin-up directory 
spinUpOutputDir = False

[meteoOptions]

precipitationNC =  /scratch/depfg/sutan101/data/isimip_forcing_without_links/isimip3a_version_2021-09-XX/copied_on_2021-09-XX/GSWP3-W5E5/merged/gswp3-w5e5_obsclim_pr_global_daily_1901_2019_version_2021-09-XX.nc
#/scratch/depfg/steya001/cropped_rhine_netcdf/historical/ipsl-cm6a-lr_w5e5_historical_pr_global_daily_1850_2014.nc
temperatureNC   =  /scratch/depfg/sutan101/data/isimip_forcing_without_links/isimip3a_version_2021-09-XX/copied_on_2021-09-XX/GSWP3-W5E5/merged/gswp3-w5e5_obsclim_tas_global_daily_1901_2019_version_2021-09-XX.nc
#/scratch/depfg/steya001/cropped_rhine_netcdf/historical/ipsl-cm6a-lr_w5e5_historical_tas_global_daily_1850_2014.nc
# Method to calculate referencePotETP (reference potential evaporation+transpiration)
# options are "Hamon" and "Input" ; If "Input", the netcdf input file must be given:
referenceETPotMethod = Penman-Monteith
refETPotFileNC       = None
#/scratch/depfg/steya001/climatic_inputs/historical/ipsl-cm6a-lr/netcdf/referencePotET_dailyTot_output.nc

# conversion constants and factors to correct forcing values (optional) so that the units are in m.day-1 and degree Celcius                                                                                                           
precipitationConstant    = 0.0
precipitationFactor      = 86.4
temperatureConstant      = -273.15
temperatureFactor        = 1.0
referenceEPotConstant = 0.0
referenceEPotFactor   = 1.0


# extra meteo variables for calculating reference potential evaporation based on Penman-Monteith (optional)
#
# - 10 m wind speed, unit: m.s-1
wind_speed_10m           =  /scratch/depfg/sutan101/data/isimip_forcing_without_links/isimip3a_version_2021-09-XX/copied_on_2021-09-XX/GSWP3-W5E5/merged/gswp3-w5e5_obsclim_sfcwind_global_daily_1901_2019_version_2021-09-XX.nc

# - if wind_speed_10m is None, it will be estimated from u and v components
#wind_speed_10m_u_comp    = /scratch-shared/edwinhs/meteo_arise/tanzania/version_2020-03-12_test-edwin-only-2000/era5-land/150_arcsec/tanzania_era5-land_u10-average_2000-2000/tanzania_era5-land_u10-average_2000-2000_rempacon-150-arcsec_daily.nc
#wind_speed_10m_v_comp    = /scratch-shared/edwinhs/meteo_arise/tanzania/version_2020-03-12_test-edwin-only-2000/era5-land/150_arcsec/tanzania_era5-land_v10-average_2000-2000/tanzania_era5-land_v10-average_2000-2000_rempacon-150-arcsec_daily.nc
#
# - atmospheric pressure, unit: Pascal
atmospheric_pressure        = /scratch/depfg/sutan101/data/isimip_forcing_without_links/isimip3a_version_2021-09-XX/copied_on_2021-09-XX/GSWP3-W5E5/merged/gswp3-w5e5_obsclim_ps_global_daily_1901_2019_version_2021-09-XX.nc

# - extraterestrial radiation, unit: J.m-2.day-1
#extraterestrial_radiation  = None
# - if extraterestrial_radiation is None, it will be calculated based on day length, latitude, day angle and day length
relative_humidity =  /scratch/depfg/sutan101/data/isimip_forcing_without_links/isimip3a_version_2021-09-XX/copied_on_2021-09-XX/GSWP3-W5E5/merged/gswp3-w5e5_obsclim_hurs_global_daily_1901_2019_version_2021-09-XX.nc


# - conversion constant for the relative_humidity so that the values ranging from 0 to 1
consta_for_relative_humidity = 0.0                                                                                                      
factor_for_relative_humidity = 0.01 

# initial conditions:
avgAnnualDiurnalDeltaTempIni = /scratch/depfg/steya001/1km_rhine/30_sec_lc_meier_old_pn/states/avgAnnualDiurnalDeltaTemp_1982-12-31.map
avgAnnualPrecipitationIni = /scratch/depfg/steya001/1km_rhine/30_sec_lc_meier_old_pn/states/avgAnnualPrecipitation_1982-12-31.map
avgAnnualTemperatureIni   = /scratch/depfg/steya001/1km_rhine/30_sec_lc_meier_old_pn/states/avgAnnualTemperature_1982-12-31.map



#shortwave_radiation_input_in_w_per_m2 = True 
# - actual shortwave (solar) radiation, unit: J.m-2.day-1
shortwave_radiation        =  /scratch/depfg/sutan101/data/isimip_forcing_without_links/isimip3a_version_2021-09-XX/copied_on_2021-09-XX/GSWP3-W5E5/merged/gswp3-w5e5_obsclim_rsds_global_daily_1901_2019_version_2021-09-XX.nc
#/scratch-shared/edwinhs/pcrglobwb2_output_africa/tanzania_era-5-land_develop-penman-montheith/test_30sec/
# - if shortwave_radiation = None, actual shortwave (solar) radiation can be estimated from net radiation and albedo: ssrd = ssr / (1 - albedo) 
#surface_net_solar_radiation = /scratch-shared/edwinhs/meteo_arise/tanzania/version_2020-03-12_test-edwin-only-2000/era5-land/150_arcsec/tanzania_era5-land_ssr-average_2000-2000/tanzania_era5-land_ssr-average_2000-2000_rempacon-150-arcsec_daily.nc
#albedo
# - 2 m dew point temperature (average), unit: degree Celcius  
#dewpoint_temperature_avg = /scratch-shared/edwinhs/meteo_arise/tanzania/version_2020-03-12_test-edwin-only-2000/era5-land/150_arcsec/tanzania_era5-land_d2m-average_2000-2000/tanzania_era5-land_d2m-average_2000-2000_rempacon-150-arcsec_daily.nc
#

# conversion constants and factors to correct forcing values (optional) so that the units are in m.day-1 (precipitation), degree Celcius (temperature), Pascal (pressure), m.s-1, and J.m-2.day-1 (radiation)
#consta_for_dewpoint_temperature_avg = -273.15                                                                                                      
#factor_for_dewpoint_temperature_avg = 1.0 

#cellAreaMap = /scratch/depfg/sutan101/data/pcrglobwb_input_arise/develop/global_30sec/routing/cell_area/cdo_grid_area_30sec_map_correct_lat.nc 

# - for debugging
outDailyTotNC    = None        
outMonthTotNC    = None 
outMonthAvgNC    = None
outMonthEndNC    = None
outAnnuaTotNC    = None
outAnnuaAvgNC    = None
outAnnuaEndNC    = None

[meteoDownscalingOptions]       


downscalePrecipitation = False
downscaleTemperature = True
downscaleReferenceETPot = False

# downscaling (based on the digital elevation model):                                                                                                            
highResolutionDEM    = global_30sec/landSurface/topography/merit_dem_processed/version_2021-02-XX/maps_covered_with_zero/dem_average_topography_parameters_30sec_february_2021_global_covered_with_zero.nc

# The downscaling will be performed by providing the "cellIds" (meteoDownscaleIds) of lower resolution cells.                                                    
meteoDownscaleIds    = /scratch/depfg/sutan101/data/pcrglobwb_input_aqueduct_without_links/version_2021-09-16/general/uniqueIds_30min.nc 
#global_30sec/meteo/unique_ids/unique_ids_5_arcmin_correct_lats.nc

# lapse rates:                                                                                                                                                   
temperLapseRateNC    = /scratch/depfg/sutan101/data/pcrglobwb_input_aqueduct_without_links/version_2021-09-16/general/temperature_slope.nc                                                                     
precipLapseRateNC    = /scratch/depfg/sutan101/data/pcrglobwb_input_aqueduct_without_links/version_2021-09-16/general/precipitation_slope.nc                                                                   
                                                                                                                                                                 
# downscaling criteria (TODO: remove these):                                                                                                                     
temperatCorrelNC     = /scratch/depfg/sutan101/data/pcrglobwb_input_aqueduct_without_links/version_2021-09-16/general/temperature_correl.nc                                                                     
precipitCorrelNC     = /scratch/depfg/sutan101/data/pcrglobwb_input_aqueduct_without_links/version_2021-09-16/general/precipitation_correl.nc                                                                   

# windows length (unit: arc-degree) for smoothing/averaging forcing data (not recommended):                                                                      
smoothingWindowsLength = 0

[landSurfaceOptions]
debugWaterBalance = True

numberOfUpperSoilLayers = 2

# topography parameters
# - they are used for all land cover types, unless they are are defined in certain land cover type options 
#   (e.g. different/various soil types for agriculture areas)  
topographyNC = global_30sec/landSurface/topography/merit_dem_processed/version_2021-02-XX/maps_covered_with_zero/topography_parameters_30sec_february_2021_global_covered_with_zero.nc

soilPropertiesNC = None
# - if soilPropertiesNC = None, the following soil parameters will be used
firstStorDepth       = europe_30sec/landSurface/soil/soilgrids/version_2021-02-XX/layerDepth_average_1_europe_30sec.nc
secondStorDepth      = europe_30sec/landSurface/soil/soilgrids/version_2021-02-XX/layerDepth_average_2_europe_30sec.nc
soilWaterStorageCap1 = europe_30sec/landSurface/soil/soilgrids/version_2021-02-XX/WHC_average_1_europe_30sec.nc
soilWaterStorageCap2 = europe_30sec/landSurface/soil/soilgrids/version_2021-02-XX/WHC_average_2_europe_30sec.nc
airEntryValue1       = europe_30sec/landSurface/soil/soilgrids/version_2021-02-XX/psiAir_average_1_europe_30sec.nc
airEntryValue2       = europe_30sec/landSurface/soil/soilgrids/version_2021-02-XX/psiAir_average_2_europe_30sec.nc
poreSizeBeta1        = europe_30sec/landSurface/soil/soilgrids/version_2021-02-XX/BCH_average_1_europe_30sec.nc
poreSizeBeta2        = europe_30sec/landSurface/soil/soilgrids/version_2021-02-XX/BCH_average_2_europe_30sec.nc
resVolWC1            = europe_30sec/landSurface/soil/soilgrids/version_2021-02-XX/vmcRes_average_1_europe_30sec.nc
resVolWC2            = europe_30sec/landSurface/soil/soilgrids/version_2021-02-XX/vmcRes_average_2_europe_30sec.nc
satVolWC1            = europe_30sec/landSurface/soil/soilgrids/version_2021-02-XX/vmcSat_average_1_europe_30sec.nc
satVolWC2            = europe_30sec/landSurface/soil/soilgrids/version_2021-02-XX/vmcSat_average_2_europe_30sec.nc
KSat1                = europe_30sec/landSurface/soil/soilgrids/version_2021-02-XX/kSat_average_1_europe_30sec.nc
KSat2                = europe_30sec/landSurface/soil/soilgrids/version_2021-02-XX/kSat_average_2_europe_30sec.nc

percolationImp       = global_30sec/landSurface/soil/impeded_drainage/global_30sec_impeded_drainage_permafrost_dsmw_correct_lats.nc
includeIrrigation = True

#~ # netcdf time series for historical expansion of irrigation areas (unit: hectares). 
#~ # Note: The resolution of this map must be consisten with the resolution of cellArea. 
historicalIrrigationArea = /scratch/depfg/steya001/irrigated_area/irrigated_area_30sec_hectar_meier_g_aei_1900_2015_v20250211.nc

#historicalIrrigationArea = /scratch/depfg/sutan101/irrigated_area_30sec/develop/irrigated_area_30sec_hectar_meier_g_aei_1900_2015_simple_downscaling_v20250203.nc
#global_05min/waterUse/irrigation/irrigated_areas/irrigationArea05ArcMin.nc


# land cover classes
landCoverTypes = naturalVegetationAndRainFedCrops,irrPaddy,irrNonPaddy

# we have to correct land cover fractions
noLandCoverFractionCorrection = False

# a pcraster map/value defining irrigation efficiency (dimensionless) - optional
#HACK took this out
irrigationEfficiency = /scratch/depfg/sutan101/data/pcrglobwb_input_aqueduct_without_links/version_2021-09-16/general/efficiency.nc
#global_30min_from_gmd_paper_input/waterUse/irrigation/irrigation_efficiency/efficiency.nc

includeDomesticWaterDemand  = True
includeIndustryWaterDemand  = True
includeLivestockWaterDemand = True

# domestic, industrial and livestock water demand data (unit must be in m.day-1)
domesticWaterDemandFile = /scratch/depfg/sutan101/data/pcrglobwb_input_aqueduct_without_links/version_2021-09-16/historical_and_ssp_files/domestic_water_demand_historical_1960-2019.nc

#global_05min_from_gmd_paper_input/waterUse/waterDemand/domestic/domestic_water_demand_version_april_2015.nc
industryWaterDemandFile = /scratch/depfg/sutan101/data/pcrglobwb_input_aqueduct_without_links/version_2021-09-16/historical_and_ssp_files/industry_water_demand_historical_1960-2019.nc

#global_05min_from_gmd_paper_input/waterUse/waterDemand/industry/industry_water_demand_version_april_2015.nc
livestockWaterDemandFile =  /scratch/depfg/sutan101/data/pcrglobwb_input_aqueduct_without_links/version_2021-09-16/general/livestock_water_demand_05min.nc
#global_05min_from_gmd_paper_input/waterUse/waterDemand/livestock/livestock_water_demand_version_april_2015.nc


# desalination water supply (maximum/potential/capacity)
desalinationWater = /scratch/depfg/sutan101/data/pcrglobwb_input_aqueduct_without_links/version_2021-09-16/general/desalination_water_version_april_2015.nc
#global_05min_from_gmd_paper_input/waterUse/desalination/desalination_water_version_april_2015.nc

# zone IDs (scale) at which allocations of groundwater and surface water (as well as desalinated water) are performed  
allocationSegmentsForGroundSurfaceWater = /scratch/depfg/sutan101/data/pcrglobwb_input_aqueduct_without_links/version_2021-09-16/general/abstraction_zones_60min_05min.nc

# pcraster maps defining the partitioning of groundwater - surface water source 
#
# - predefined surface water - groundwater partitioning for irrigation demand (e.g. based on Siebert, Global Map of Irrigation Areas version 5)
irrigationSurfaceWaterAbstractionFractionData = /scratch/depfg/sutan101/data/pcrglobwb_input_aqueduct_without_links/version_2021-09-16/general/AEI_SWFRAC.nc
# -- quality map
irrigationSurfaceWaterAbstractionFractionDataQuality = /scratch/depfg/sutan101/data/pcrglobwb_input_aqueduct_without_links/version_2021-09-16/general/AEI_QUAL.nc

# - threshold values defining the preference for surface water source for irrigation purpose
# -- treshold to maximize surface water irrigation use (cells with irrSurfaceWaterAbstractionFraction above this will prioritize irrigation surface water use)
treshold_to_maximize_irrigation_surface_water = 0.50
# -- treshold to minimize fossil water withdrawal for irrigation (cells with irrSurfaceWaterAbstractionFraction below this have no fossil withdrawal for irrigation)
treshold_to_minimize_fossil_groundwater_irrigation = 0.70

# - predefined surface water - groundwater partitioning for non irrigation demand (e.g. based on McDonald, 2014)
maximumNonIrrigationSurfaceWaterAbstractionFractionData = /scratch/depfg/sutan101/data/pcrglobwb_input_aqueduct_without_links/version_2021-09-16/general/max_city_sw_fraction.nc

# option to skip extrapolation
noParameterExtrapolation = True

[naturalVegetationAndRainFedCropsOptions]
name = naturalVegetationAndRainFedCrops
debugWaterBalance = True

# snow module properties
snowModuleType      =  Simple
freezingT           =  0.0
degreeDayFactor     =  0.0055
snowWaterHoldingCap =  0.1
refreezingCoeff     =  0.05

# other paramater values
minTopWaterLayer  = 0.0
minCropKC         = 0.2

cropCoefficientNC = europe_30sec/landSurface/landCover/naturalVegetationAndRainFedCrops/version_2020-12-XX/composite-short-n-tall_crop_coefficient.nc
interceptCapNC    = europe_30sec/landSurface/landCover/naturalVegetationAndRainFedCrops/version_2020-12-XX/composite-short-n-tall_intercept_capacity.nc
coverFractionNC   = europe_30sec/landSurface/landCover/naturalVegetationAndRainFedCrops/version_2020-12-XX/composite-short-n-tall_cover_fraction.nc

landCoverMapsNC   = None
# If NC file is not provided, we have to provide the following pcraster maps:
fracVegCover      = 1.0
minSoilDepthFrac  = 0.99
maxSoilDepthFrac  = 1.01
rootFraction1     = europe_30sec/landSurface/landCover/naturalVegetationAndRainFedCrops/version_2020-12-XX/rfrac1_all.nc
rootFraction2     = europe_30sec/landSurface/landCover/naturalVegetationAndRainFedCrops/version_2020-12-XX/rfrac2_all.nc	
maxRootDepth      = europe_30sec/landSurface/landCover/naturalVegetationAndRainFedCrops/version_2020-12-XX/meanrootdepth_all.nc
# Note: The maxRootDepth is not used for non irrigated land cover types. 	
#
# Parameters for the Arno's scheme:
arnoBeta = None
# If arnoBeta is defined, the soil water capacity distribution is based on this.
# If arnoBeta is NOT defined, maxSoilDepthFrac must be defined such that arnoBeta will be calculated based on maxSoilDepthFrac and minSoilDepthFrac.

# initial conditions:
interceptStorIni = /scratch/depfg/steya001/1km_rhine/30_sec_lc_meier_old_pn/states/interceptStor_naturalVegetationAndRainFedCrops_1982-12-31.map
snowCoverSWEIni  = /scratch/depfg/steya001/1km_rhine/30_sec_lc_meier_old_pn/states/snowCoverSWE_naturalVegetationAndRainFedCrops_1982-12-31.map
snowFreeWaterIni = /scratch/depfg/steya001/1km_rhine/30_sec_lc_meier_old_pn/states/snowFreeWater_naturalVegetationAndRainFedCrops_1982-12-31.map
topWaterLayerIni = /scratch/depfg/steya001/1km_rhine/30_sec_lc_meier_old_pn/states/topWaterLayer_naturalVegetationAndRainFedCrops_1982-12-31.map
storUppIni       = /scratch/depfg/steya001/1km_rhine/30_sec_lc_meier_old_pn/states/storUpp_naturalVegetationAndRainFedCrops_1982-12-31.map
storLowIni       = /scratch/depfg/steya001/1km_rhine/30_sec_lc_meier_old_pn/states/storLow_naturalVegetationAndRainFedCrops_1982-12-31.map
interflowIni     = /scratch/depfg/steya001/1km_rhine/30_sec_lc_meier_old_pn/states/interflow_naturalVegetationAndRainFedCrops_1982-12-31.map


noParameterExtrapolation = True


[irrPaddyOptions]
name = irrPaddy
debugWaterBalance = True

# snow module properties
snowModuleType      =  Simple
freezingT           =  0.0
degreeDayFactor     =  0.0055
snowWaterHoldingCap =  0.1
refreezingCoeff     =  0.05
#
landCoverMapsNC  = None
# If NC file is not provided, we have to provide the following values:
#
fracVegCover     = global_30sec/landSurface/landCover/irrigated_fractions/global_estimate_irrigation_paddy_fraction_30sec.nc
minSoilDepthFrac = 0.99
maxSoilDepthFrac = 1.01
rootFraction1    = 1.0
#global_30min_from_gmd_paper_input/landSurface/landCover/irrPaddy/rfrac1_paddy.nc
rootFraction2    = 0.0
#global_30min_from_gmd_paper_input/landSurface/landCover/irrPaddy/rfrac2_paddy.nc
maxRootDepth     = 0.5
#
# Parameters for the Arno's scheme:
arnoBeta = None
# If arnoBeta is defined, the soil water capacity distribution is based on this.
# If arnoBeta is NOT defined, maxSoilDepthFrac must be defined such that arnoBeta will be calculated based on maxSoilDepthFrac and minSoilDepthFrac.
#
# other paramater values
minTopWaterLayer = 0.05
minCropKC        = 0.2
cropDeplFactor   = 0.2
minInterceptCap  = 0.0002


cropCoefficientNC = /scratch/depfg/sutan101/data/pcrglobwb_input_aqueduct_without_links/version_2021-09-16/general/paddy_cropfactor_filled.nc         
coverFractionNC   = /scratch/depfg/sutan101/data/pcrglobwb_input_aqueduct_without_links/version_2021-09-16/general/paddy_groundcover_filled.nc
interceptCapNC    = /scratch/depfg/sutan101/data/pcrglobwb_input_aqueduct_without_links/version_2021-09-16/general/paddy_interceptionstorage_filled.nc        


noParameterExtrapolation = True

# initial conditions:
interceptStorIni = /scratch/depfg/steya001/1km_rhine/30_sec_lc_meier_old_pn/states/interceptStor_irrPaddy_1982-12-31.map
snowCoverSWEIni  = /scratch/depfg/steya001/1km_rhine/30_sec_lc_meier_old_pn/states/snowCoverSWE_irrPaddy_1982-12-31.map
snowFreeWaterIni = /scratch/depfg/steya001/1km_rhine/30_sec_lc_meier_old_pn/states/snowFreeWater_irrPaddy_1982-12-31.map
topWaterLayerIni = /scratch/depfg/steya001/1km_rhine/30_sec_lc_meier_old_pn/states/topWaterLayer_irrPaddy_1982-12-31.map
storUppIni       = /scratch/depfg/steya001/1km_rhine/30_sec_lc_meier_old_pn/states/storUpp_irrPaddy_1982-12-31.map
storLowIni       = /scratch/depfg/steya001/1km_rhine/30_sec_lc_meier_old_pn/states/storLow_irrPaddy_1982-12-31.map
interflowIni     = /scratch/depfg/steya001/1km_rhine/30_sec_lc_meier_old_pn/states/interflow_irrPaddy_1982-12-31.map


[irrNonPaddyOptions]
name = irrNonPaddy
debugWaterBalance = True

# snow module properties
snowModuleType      =  Simple
freezingT           =  0.0
degreeDayFactor     =  0.0055
snowWaterHoldingCap =  0.1
refreezingCoeff     =  0.05
#
landCoverMapsNC  = None
# If NC file is not provided, we have to provide the following values:
fracVegCover     = global_30sec/landSurface/landCover/irrigated_fractions/global_estimate_irrigation_non_paddy_fraction_30sec.nc
minSoilDepthFrac = /scratch/depfg/sutan101/data/pcrglobwb_input_aqueduct_without_links/version_2021-09-16/general/nonpaddy_minSoilDepthFrac_filled.map
maxSoilDepthFrac = /scratch/depfg/sutan101/data/pcrglobwb_input_aqueduct_without_links/version_2021-09-16/general/nonpaddy_maxSoilDepthFrac_filled.map
rootFraction1    = /scratch/depfg/sutan101/data/pcrglobwb_input_aqueduct_without_links/version_2021-09-16/general/nonpaddy_rootfraction_z1_filled.map
rootFraction2    = /scratch/depfg/sutan101/data/pcrglobwb_input_aqueduct_without_links/version_2021-09-16/general/nonpaddy_rootfraction_z2_filled.map
maxRootDepth     = /scratch/depfg/sutan101/data/pcrglobwb_input_aqueduct_without_links/version_2021-09-16/general/nonpaddy_maxSoilDepth_filled.map
arnoBeta = None


# If arnoBeta is defined, the soil water capacity distribution is based on this.
# If arnoBeta is NOT defined, maxSoilDepthFrac must be defined such that arnoBeta will be calculated based on maxSoilDepthFrac and minSoilDepthFrac.
## other paramater values
minTopWaterLayer = 0.0
minCropKC        = 0.2
cropDeplFactor   = 0.5
minInterceptCap  = 0.0002


cropCoefficientNC = /scratch/depfg/sutan101/data/pcrglobwb_input_aqueduct_without_links/version_2021-09-16/general/nonpaddy_cropfactor_filled.nc         
coverFractionNC   = /scratch/depfg/sutan101/data/pcrglobwb_input_aqueduct_without_links/version_2021-09-16/general/nonpaddy_groundcover_filled.nc
interceptCapNC    = /scratch/depfg/sutan101/data/pcrglobwb_input_aqueduct_without_links/version_2021-09-16/general/nonpaddy_interceptionstorage_filled.nc        


noParameterExtrapolation = True

# initial conditions:
interceptStorIni = /scratch/depfg/steya001/1km_rhine/30_sec_lc_meier_old_pn/states/interceptStor_irrNonPaddy_1982-12-31.map
snowCoverSWEIni  = /scratch/depfg/steya001/1km_rhine/30_sec_lc_meier_old_pn/states/snowCoverSWE_irrNonPaddy_1982-12-31.map
snowFreeWaterIni = /scratch/depfg/steya001/1km_rhine/30_sec_lc_meier_old_pn/states/snowFreeWater_irrNonPaddy_1982-12-31.map
topWaterLayerIni = /scratch/depfg/steya001/1km_rhine/30_sec_lc_meier_old_pn/states/topWaterLayer_irrNonPaddy_1982-12-31.map
storUppIni       = /scratch/depfg/steya001/1km_rhine/30_sec_lc_meier_old_pn/states/storUpp_irrNonPaddy_1982-12-31.map
storLowIni       = /scratch/depfg/steya001/1km_rhine/30_sec_lc_meier_old_pn/states/storLow_irrNonPaddy_1982-12-31.map
interflowIni     = /scratch/depfg/steya001/1km_rhine/30_sec_lc_meier_old_pn/states/interflow_irrNonPaddy_1982-12-31.map



[groundwaterOptions]
debugWaterBalance = True

#~ groundwaterPropertiesNC = global_05min/groundwater/properties/groundwaterProperties5ArcMin.nc
groundwaterPropertiesNC    = None
#
recessionCoeff = global_30sec/groundwater/properties/version_202102XX/recession_coefficient_30sec.nc
kSatAquifer    = global_30sec/groundwater/properties/version_202102XX/k_conductivity_aquifer_filled_30sec.nc
specificYield  = global_30sec/groundwater/properties/version_202102XX/specific_yield_aquifer_filled_30sec.nc
#
# minimum value for groundwater recession coefficient (day-1) 
# - about 11 years
minRecessionCoeff = 0.00025
#~ # - about 27 years
#~ minRecessionCoeff = 1.0e-4

# some options for constraining groundwater abstraction
limitFossilGroundWaterAbstraction      = True
estimateOfRenewableGroundwaterCapacity = 0.0
estimateOfTotalGroundwaterThickness    = global_30sec/groundwater/aquifer_thickness_estimate/version_2020-09-XX/thickness_05min_remapbil_to_30sec_filled_with_pcr_correct_lat.nc
# minimum and maximum total groundwater thickness 
minimumTotalGroundwaterThickness       = 100.
maximumTotalGroundwaterThickness       = None

doNotExtrapolateThickness = True
noParameterExtrapolation  = True

# annual pumping capacity for each region (unit: billion cubic meter per year), should be given in a netcdf file
pumpingCapacityNC    = /scratch/depfg/sutan101/data/pcrglobwb_input_aqueduct_without_links/version_2021-09-16/general/gw_pumping_capacity_1960-2100.nc
#/scratch/depfg/sutan101/data/pcrglobwb_input_aqueduct_without_links/version_2021-09-16/general/regional_abstraction_limit.nc
# zonal IDs (scale) at which zonal allocation of groundwater is performed  
allocationSegmentsForGroundwater    = False
#global_05min_from_gmd_paper_input/waterUse/abstraction_zones/abstraction_zones_30min_05min.nc
#~ allocationSegmentsForGroundwater = False


# initial conditions:
storGroundwaterFossilIni                     = Maximum
#/scratch/depfg/steya001/1km_rhine/30_sec_lc_meier_old_pn/states/storGroundwaterFossil_1982-12-31.map
#~ storGroundwaterFossilIni                  = /scratch/depfg/steya001/1km_rhine/30_sec_lc_meier_old_pn/states/storGroundwaterFossil_1982-12-31.map
storGroundwaterIni                           =/scratch/depfg/steya001/1km_rhine/30_sec_lc_meier_old_pn/states/storGroundwater_1982-12-31.map
avgNonFossilGroundwaterAllocationLongIni     =/scratch/depfg/steya001/1km_rhine/30_sec_lc_meier_old_pn/states/avgNonFossilGroundwaterAllocationLong_1982-12-31.map
avgNonFossilGroundwaterAllocationShortIni    =/scratch/depfg/steya001/1km_rhine/30_sec_lc_meier_old_pn/states/avgNonFossilGroundwaterAllocationShort_1982-12-31.map
avgTotalGroundwaterAbstractionIni            =/scratch/depfg/steya001/1km_rhine/30_sec_lc_meier_old_pn/states/avgTotalGroundwaterAbstraction_1982-12-31.map
avgTotalGroundwaterAllocationLongIni         =/scratch/depfg/steya001/1km_rhine/30_sec_lc_meier_old_pn/states/avgTotalGroundwaterAllocationLong_1982-12-31.map
avgTotalGroundwaterAllocationShortIni        =/scratch/depfg/steya001/1km_rhine/30_sec_lc_meier_old_pn/states/avgTotalGroundwaterAllocationShort_1982-12-31.map
relativeGroundwaterHeadIni                   =/scratch/depfg/steya001/1km_rhine/30_sec_lc_meier_old_pn/states/relativeGroundwaterHead_1982-12-31.map
baseflowIni                                  =/scratch/depfg/steya001/1km_rhine/30_sec_lc_meier_old_pn/states/baseflow_1982-12-31.map
avgStorGroundwaterIni                        =/scratch/depfg/steya001/1km_rhine/30_sec_lc_meier_old_pn/states/avgStorGroundwater_1982-12-31.map


[routingOptions]
debugWaterBalance = True

# drainage direction map
lddMap      = global_30sec/routing/surface_water_bodies/version_2020-05-XX/lddsound_30sec_version_202005XX_correct_lat.nc

# cell area (unit: m2)
cellAreaMap = global_30sec/routing/cell_area/cdo_grid_area_30sec_map_correct_lat.nc 

# routing method:
routingMethod = accuTravelTime

# manning coefficient
manningsN   = 0.04

# Option for flood plain simulation
dynamicFloodPlain = False

# manning coefficient for floodplain
floodplainManningsN = 0.07

# channel gradient
gradient             = global_30sec/routing/channel_properties/version_2021-02-XX/maps_covered_with_zero/channel_gradient_channel_parameters_30sec_february_2021_global_covered_with_zero.nc

# constant channel depth 
constantChannelDepth = global_30sec/routing/channel_properties/version_2021-02-XX/maps_covered_with_zero/bankfull_depth_channel_parameters_30sec_february_2021_global_covered_with_zero.nc

# constant channel width (optional)
constantChannelWidth = global_30sec/routing/channel_properties/version_2021-02-XX/maps_covered_with_zero/bankfull_width_channel_parameters_30sec_february_2021_global_covered_with_zero.nc

# minimum channel width (optional)
minimumChannelWidth  = global_30sec/routing/channel_properties/version_2021-02-XX/maps_covered_with_zero/bankfull_width_channel_parameters_30sec_february_2021_global_covered_with_zero.nc

# channel properties for flooding
bankfullCapacity     = None
# - If None, it will be estimated from (bankfull) channel depth (m) and width (m) 

# files for relative elevation (above minimum dem) 
relativeElevationFiles  = global_30sec/landSurface/topography/merit_dem_processed/version_2021-02-XX/maps_covered_with_zero/dzRel%04d_topography_parameters_30sec_february_2021_global_covered_with_zero.nc
relativeElevationLevels = 0.0, 0.01, 0.05, 0.10, 0.20, 0.30, 0.40, 0.50, 0.60, 0.70, 0.80, 0.90, 1.00

# composite crop factors for WaterBodies: 
cropCoefficientWaterNC = global_30min_from_gmd_paper_input/routing/kc_surface_water/cropCoefficientForOpenWater.nc
minCropWaterKC         = 1.00

# lake and reservoir parameters